Circuit: * D:\Projects\solderingKit\spiceBreathing\555Breathing.asc

WARNING: Less than two connections to node NC_03.  This node is used by S:U1:1.
WARNING: Less than two connections to node NC_06.  This node is used by S:U2:1.
Direct Newton iteration failed to find .op point.  (Use ".option noopiter" to skip.)
Starting Gmin stepping
Gmin = 10
Gmin = 1.07374
Gmin = 0.115292
Gmin = 0.0123794
Gmin = 0.00132923
Gmin = 0.000142725
Gmin = 1.5325e-005
Gmin = 1.6455e-006
Gmin = 1.76685e-007
Gmin = 1.89714e-008
Gmin = 2.03704e-009
Gmin = 2.18725e-010
Gmin = 2.34854e-011
Gmin = 2.52173e-012
Gmin = 2.70769e-013
Gmin = 0
Gmin stepping succeeded in finding the operating point.


Date: Wed Feb 23 17:02:48 2022
Total elapsed time: 0.123 seconds.

tnom = 27
temp = 27
method = modified trap
totiter = 8968
traniter = 8547
tranpoints = 2402
accept = 2074
rejected = 328
matrix size = 56
fillins = 0
solver = Normal
Matrix Compiler1: 2.39 KB object code size  0.6/0.3/[0.2]
Matrix Compiler2: 3.72 KB object code size  0.4/0.7/[0.3]

